1t4v_docking
                    3D
 Structure written by MMmdl.
 54 55  0  0  1  0            999 V2000
   18.1920  -16.1726   23.0957 C   0  0  0  0  0  0
   18.1407  -14.9717   22.1943 C   0  0  0  0  0  0
   19.0755  -16.2325   24.1312 N   0  0  0  0  0  0
   10.7112  -12.4432   24.4652 C   0  0  0  0  0  0
   19.2995  -14.5558   21.4941 C   0  0  0  0  0  0
   16.9009  -14.3342   21.9418 C   0  0  0  0  0  0
   10.1711  -13.3331   25.2874 N   0  0  0  0  0  0
   17.4224  -17.0981   22.8323 O   0  0  0  0  0  0
   19.2084  -13.5134   20.5542 C   0  0  0  0  0  0
   17.9778  -12.9094   20.3014 C   0  0  0  0  0  0
   16.8257  -13.2816   20.9972 C   0  0  0  0  0  0
   19.8055  -15.0611   24.6752 C   0  0  0  0  0  0
   11.3711  -12.8962   23.3897 N   0  0  0  0  0  0
   20.1677  -18.5015   24.1025 C   0  0  0  0  0  0
   10.5711  -11.1369   24.7127 N   0  0  0  0  0  0
   20.8345  -18.2920   22.9535 C   0  0  0  0  0  0
   19.2565  -17.5210   24.8371 C   0  0  0  0  0  0
   20.5711  -12.9345   19.6874 Cl  0  0  0  0  0  0
   15.7122  -12.5488   20.6793 O   0  0  0  0  0  0
   12.2471  -11.9123   22.9095 O   0  0  0  0  0  0
   13.5788  -11.6531   20.9560 C   0  0  0  0  0  0
   14.4957  -12.8205   21.3330 C   0  0  0  0  0  0
   12.1711  -11.8333   21.5015 C   0  0  0  0  0  0
   19.3653  -14.6610   26.0892 C   0  0  0  0  0  0
   21.3227  -15.2558   24.7834 C   0  0  0  0  0  0
   21.7712  -14.2052   25.8075 C   0  0  0  0  0  0
   20.5245  -13.8067   26.6187 C   0  0  0  0  0  0
   20.2499  -15.0437   21.6590 H   0  0  0  0  0  0
   16.0202  -14.6737   22.4674 H   0  0  0  0  0  0
    9.4515  -13.0155   25.9543 H   0  0  0  0  0  0
   17.9160  -12.1331   19.5615 H   0  0  0  0  0  0
   19.6499  -14.1715   24.0667 H   0  0  0  0  0  0
   11.4627  -13.8805   23.1626 H   0  0  0  0  0  0
   20.2725  -19.4655   24.5788 H   0  0  0  0  0  0
    9.8756  -10.8161   25.3923 H   0  0  0  0  0  0
   11.0277  -10.4853   24.0942 H   0  0  0  0  0  0
   21.4506  -19.0706   22.5284 H   0  0  0  0  0  0
   20.7867  -17.3556   22.4184 H   0  0  0  0  0  0
   19.6834  -17.3870   25.8287 H   0  0  0  0  0  0
   18.2928  -18.0033   25.0098 H   0  0  0  0  0  0
   14.0028  -10.7186   21.3265 H   0  0  0  0  0  0
   13.5283  -11.5641   19.8703 H   0  0  0  0  0  0
   14.0903  -13.7762   20.9976 H   0  0  0  0  0  0
   14.6241  -12.8600   22.4154 H   0  0  0  0  0  0
   11.5438  -10.9811   21.2393 H   0  0  0  0  0  0
   11.7393  -12.7263   21.0458 H   0  0  0  0  0  0
   18.4137  -14.1331   26.0874 H   0  0  0  0  0  0
   19.2429  -15.5192   26.7475 H   0  0  0  0  0  0
   21.5784  -16.2417   25.1699 H   0  0  0  0  0  0
   21.8234  -15.1430   23.8216 H   0  0  0  0  0  0
   22.5640  -14.5930   26.4488 H   0  0  0  0  0  0
   22.1716  -13.3331   25.2947 H   0  0  0  0  0  0
   20.3123  -12.7462   26.4778 H   0  0  0  0  0  0
   20.6718  -13.9613   27.6874 H   0  0  0  0  0  0
  1  2  1  0  0  0
  1  3  1  0  0  0
  1  8  2  0  0  0
  2  5  2  0  0  0
  2  6  1  0  0  0
  3 12  1  0  0  0
  3 17  1  0  0  0
  4 13  1  0  0  0
  4  7  2  0  0  0
  4 15  1  0  0  0
  5  9  1  0  0  0
  5 28  1  0  0  0
  6 11  2  0  0  0
  6 29  1  0  0  0
  7 30  1  0  0  0
  9 18  1  0  0  0
  9 10  2  0  0  0
 10 11  1  0  0  0
 10 31  1  0  0  0
 11 19  1  0  0  0
 12 24  1  0  0  0
 12 25  1  0  0  0
 12 32  1  0  0  0
 13 20  1  0  0  0
 13 33  1  0  0  0
 14 17  1  0  0  0
 14 16  2  0  0  0
 14 34  1  0  0  0
 15 35  1  0  0  0
 15 36  1  0  0  0
 16 37  1  0  0  0
 16 38  1  0  0  0
 17 39  1  0  0  0
 17 40  1  0  0  0
 19 22  1  0  0  0
 20 23  1  0  0  0
 21 22  1  0  0  0
 21 23  1  0  0  0
 21 41  1  0  0  0
 21 42  1  0  0  0
 22 43  1  0  0  0
 22 44  1  0  0  0
 23 45  1  0  0  0
 23 46  1  0  0  0
 24 27  1  0  0  0
 24 47  1  0  0  0
 24 48  1  0  0  0
 25 26  1  0  0  0
 25 49  1  0  0  0
 25 50  1  0  0  0
 26 27  1  0  0  0
 26 51  1  0  0  0
 26 52  1  0  0  0
 27 53  1  0  0  0
 27 54  1  0  0  0
M  END
> <s_m_entry_id>
2

> <s_m_entry_name>
1t4v_docking.1

> <chiral flag>
1

> <version>
0

> <s_m_Source_Path>
/home/gabriel/Dropbox/Academico/Utal2019/Investigacion/RMSD/TI/mols

> <s_m_Source_File>
1t4v_docking.mol

> <i_m_Source_File_Index>
1

$$$$
