3ldx_docking
                    3D
 Structure written by MMmdl.
 54 55  0  0  1  0            999 V2000
   19.0695  -15.9117   22.5679 N   0  0  0  0  0  0
   17.9601  -15.5042   23.0395 C   0  0  0  0  0  0
   17.2506  -14.3091   22.4485 C   0  0  0  0  0  0
   17.9147  -13.6689   21.4482 N   0  0  0  0  0  0
   19.1983  -14.1687   21.1188 C   0  0  0  0  0  0
   19.7184  -15.2767   21.6872 C   0  0  0  0  0  0
   16.1486  -13.9666   22.8875 O   0  0  0  0  0  0
   19.9773  -13.3554   20.0927 C   0  0  0  0  0  0
   17.3644  -12.4483   20.8022 C   0  0  0  0  0  0
   15.8970  -12.5433   20.3687 C   0  0  0  0  0  0
   15.0895  -11.6131   20.8875 N   0  0  0  0  0  0
   15.5230  -13.4389   19.6136 O   0  0  0  0  0  0
   13.6365  -11.6320   20.8697 C   0  0  0  0  0  0
   13.1668  -11.8391   22.3097 C   0  0  0  0  0  0
   11.7553  -11.8999   22.3496 O   0  0  0  0  0  0
   11.3377  -12.9332   23.2060 N   0  0  0  0  0  0
   10.6959  -12.4603   24.2869 C   0  0  0  0  0  0
   10.1711  -13.3330   25.1450 N   0  0  0  0  0  0
   17.3714  -16.1155   24.0867 N   0  0  0  0  0  0
   17.9267  -17.2404   24.8582 C   0  0  0  0  0  0
   18.5644  -16.7772   26.1838 C   0  0  0  0  0  0
   19.8152  -15.9170   26.0178 C   0  0  0  0  0  0
   20.9759  -16.4624   25.4259 C   0  0  0  0  0  0
   22.1321  -15.6741   25.2622 C   0  0  0  0  0  0
   22.1363  -14.3324   25.6871 C   0  0  0  0  0  0
   20.9859  -13.7815   26.2834 C   0  0  0  0  0  0
   19.8350  -14.5725   26.4501 C   0  0  0  0  0  0
   17.6378  -16.1296   26.8935 F   0  0  0  0  0  0
   18.9069  -17.8665   26.8724 F   0  0  0  0  0  0
   20.7005  -15.6287   21.4114 H   0  0  0  0  0  0
   20.9709  -13.7747   19.9547 H   0  0  0  0  0  0
   19.4926  -13.3757   19.1165 H   0  0  0  0  0  0
   20.1080  -12.3231   20.4197 H   0  0  0  0  0  0
   17.4945  -11.6272   21.5081 H   0  0  0  0  0  0
   17.8814  -12.1394   19.8995 H   0  0  0  0  0  0
   15.5215  -10.8926   21.4517 H   0  0  0  0  0  0
   13.2616  -10.6841   20.4860 H   0  0  0  0  0  0
   13.2458  -12.4206   20.2237 H   0  0  0  0  0  0
   13.6345  -12.7404   22.7140 H   0  0  0  0  0  0
   13.4906  -11.0039   22.9323 H   0  0  0  0  0  0
   11.3853  -13.9150   22.9556 H   0  0  0  0  0  0
    9.4724  -13.0096   25.8287 H   0  0  0  0  0  0
   10.2269  -14.3239   24.9313 H   0  0  0  0  0  0
    9.9182  -10.8163   25.2258 H   0  0  0  0  0  0
   16.4884  -15.7324   24.4199 H   0  0  0  0  0  0
   17.1032  -17.9206   25.0773 H   0  0  0  0  0  0
   18.6368  -17.8094   24.2583 H   0  0  0  0  0  0
   20.9824  -17.4896   25.0926 H   0  0  0  0  0  0
   23.0173  -16.1008   24.8147 H   0  0  0  0  0  0
   23.0250  -13.7310   25.5668 H   0  0  0  0  0  0
   20.9818  -12.7530   26.6167 H   0  0  0  0  0  0
   18.9707  -14.1336   26.9183 H   0  0  0  0  0  0
   10.5711  -11.1487   24.5127 N   0  0  0  0  0  0
   10.9510  -10.5173   23.8251 H   0  0  0  0  0  0
  1  6  1  0  0  0
  1  2  2  0  0  0
  2 19  1  0  0  0
  2  3  1  0  0  0
  3  4  1  0  0  0
  3  7  2  0  0  0
  4  9  1  0  0  0
  4  5  1  0  0  0
  5  8  1  0  0  0
  5  6  2  0  0  0
  6 30  1  0  0  0
  8 31  1  0  0  0
  8 32  1  0  0  0
  8 33  1  0  0  0
  9 10  1  0  0  0
  9 34  1  0  0  0
  9 35  1  0  0  0
 10 11  1  0  0  0
 10 12  2  0  0  0
 11 13  1  0  0  0
 11 36  1  0  0  0
 13 14  1  0  0  0
 13 37  1  0  0  0
 13 38  1  0  0  0
 14 15  1  0  0  0
 14 39  1  0  0  0
 14 40  1  0  0  0
 15 16  1  0  0  0
 16 17  1  0  0  0
 16 41  1  0  0  0
 17 18  1  0  0  0
 17 53  2  0  0  0
 18 42  1  0  0  0
 18 43  1  0  0  0
 19 20  1  0  0  0
 19 45  1  0  0  0
 20 21  1  0  0  0
 20 46  1  0  0  0
 20 47  1  0  0  0
 21 22  1  0  0  0
 21 28  1  0  0  0
 21 29  1  0  0  0
 22 23  2  0  0  0
 22 27  1  0  0  0
 23 24  1  0  0  0
 23 48  1  0  0  0
 24 25  2  0  0  0
 24 49  1  0  0  0
 25 26  1  0  0  0
 25 50  1  0  0  0
 26 27  2  0  0  0
 26 51  1  0  0  0
 27 52  1  0  0  0
 44 53  1  0  0  0
 53 54  1  0  0  0
M  END
> <s_m_entry_id>
2

> <s_m_entry_name>
3ldx_docking.1

> <chiral flag>
0

> <version>
0

> <s_m_Source_Path>
/home/gabriel/Dropbox/Academico/Utal2019/Investigacion/RMSD/TI/mols

> <s_m_Source_File>
3ldx_docking.mol

> <i_m_Source_File_Index>
1

$$$$
